!-------------------------------------------------------------------------------
!-- INITIALIZATION PARAMETER NAMELIST
!   Documentation: https://palm.muk.uni-hannover.de/trac/wiki/doc/app/inipar
!-------------------------------------------------------------------------------
&initialization_parameters
!
!-- grid parameters
!-------------------------------------------------------------------------------
    nx                         = 1999, ! Number of gridboxes in x-direction (nx+1)
    ny                         = 1999, ! Number of gridboxes in y-direction (ny+1)
    nz                         = 60, ! Number of gridboxes in z-direction (nz)

    dx                         = 6.0, ! Size of single gridbox in x-direction
    dy                         = 6.0, ! Size of single gridbox in y-direction
    dz                         = 4.0, ! Size of single gridbox in z-direction

    dt                         = 0.6, !fix timestep 


    humidity                   = .TRUE.,
    passive_scalar             = .TRUE.,

!
!-- initialization
!-------------------------------------------------------------------------------
    initializing_actions       = 'set_constant_profiles', ! initial conditions


    origin_date_time           = '2019-09-24 00:00:00 -5', !starting at midnight localtime, CDT,  and -5 from UTC
    topography                 = 'read_from_file',



!
!-- boundary conditions
!-------------------------------------------------------------------------------
    bc_pt_b                    = 'dirichlet',                                    ! dirichlet required for lsm / neumann required for surface_heatflux
    bc_uv_b                    = 'dirichlet',
    bc_q_b                     = 'dirichlet',                                    ! dirichlet required for lsm / neumann required for surface_heatflux
    bc_p_t                     = 'neumann',
    bc_p_b                     = 'neumann',
!

!-- numerics
!-------------------------------------------------------------------------------
    psolver                    = 'multigrid',   !Using non-cyclic lateral boundary conditions requires the multigrid method 
!                                                for solving the Poisson equation for the perturbation pressure.
    cycle_mg  = 'w',
    mg_cycles = 2,
    mg_switch_to_pe0_level = -1,

    turbulence_closure         = '1.5-order',
    
!-- PHYSICS -------------------------------------------------------------------

!   Two day values taken from the HRRR data - SP
    spinup_time         = 0, ! 17280.0 2 days
    spinup_pt_mean      = 292.83,  !
    spinup_pt_amplitude = 5.60,    !
    dt_spinup           = 5.0,
    data_output_during_spinup = .F.,
    

/ ! end of initialization parameter namelist

!------------------------------------------------------------------------------
!-- LAND SURFACE MODEL PARAMETER NAMELIST
!   Documentation: https://palm.muk.uni-hannover.de/trac/wiki/doc/app/lsmpar
!------------------------------------------------------------------------------
&land_surface_parameters
!
!
    aero_resist_kray           = .T.,
    conserve_water_content     = .T.,
    min_soil_resistance        = 50.0,

!    soil_type                  = 3,
!    dz_soil                    =  0.001,  0.009,   0.01,   0.02,   0.04,   0.06,   0.13,   0.26,   0.54,   1.86, 
    soil_moisture              =   0.1859, 0.1888, 0.1928, 0.1962 , 0.2026, 0.2067, 0.2051, 0.1666 ! from HRRR data
    soil_temperature           =   288.83, 289.60, 290.33, 290.79,289.66, 288.19, 286.74, 279.07,   ! from HRRR data
    deep_soil_temperature      = 288.11,

    surface_type               = 'netcdf',
    constant_roughness         = .T.,
!    surface_type               = 'vegetation',
!    vegetation_type            = 16,
!
!
/                                                                               ! end of land surface model parameter namelist

!------------------------------------------------------------------------------
!-- RADIATION MODEL PARAMETER NAMELIST
!   Documentation: https://palm.muk.uni-hannover.de/trac/wiki/doc/app/radpar
!------------------------------------------------------------------------------
&radiation_parameters
    dt_radiation               = 60.0,
    radiation_scheme           = 'external',
    radiation_interactions_on  = .T.,                                           !  interaction of radiation inside the canopy, i.e. grass
    rad_angular_discretization = .T.,
    raytrace_discrete_azims    = 10,
    raytrace_discrete_elevs    = 10,

    surface_reflections = .T.,

    nrefsteps = 2,
!
/                                                                               ! end of radiation model parameter namelist

!------------------------------------------------------------------------------
!-- PLANT CANOPY MODEL PARAMETER NAMELIST
!   Documentation: https://palm.muk.uni-hannover.de/trac/wiki/doc/app/plant_canopy_parameters
!------------------------------------------------------------------------------
&plant_canopy_parameters
    canopy_mode                 = 'read_from_file',      
    canopy_drag_coeff           = 0.15,
    plant_canopy_transpiration  = .T.,
/


!-------------------------------------------------------------------------------
!-- RUNTIME PARAMETER NAMELIST
!   Documentation: https://palm.muk.uni-hannover.de/trac/wiki/doc/app/d3par
!-------------------------------------------------------------------------------
&runtime_parameters
!
!-- run steering
!-------------------------------------------------------------------------------
    end_time                   = 3600.0, ! 1800.0, ! simulation time of the 3D model , 2.0h, 0.5 h for SVF calc.

    create_disturbances        = .TRUE., ! randomly perturbate horiz. velocity
    dt_disturb                 = 150.0,  ! interval for random perturbations
    disturbance_energy_limit   = 0.01,   ! upper limit for perturbation energy

    data_output_2d_on_each_pe  = .TRUE., ! do 2D output on each MPI rank
    
    npex = 25,
    npey = 50,
    debug_output                 = .T.,

!
!-- data output
!-------------------------------------------------------------------------------
    netcdf_data_format         = 5,

    dt_run_control             = 0.0,    ! output interval for run control
    dt_data_output             = 600.0,  ! output interval for general data, 10 mins
    dt_data_output_av          = 1800.0, ! output interval for averaged data,30 mins
    dt_dopr                    = 600.0,  ! output interval for profile data, 10 mins

!
!-- In case you want to calculate TKE or fluxes from 3D output averaging_input need to be every timestep
    averaging_interval         = 1800.0,  ! averaging interval general data change this for longer/final runs**
    dt_averaging_input         = 0.001,  ! averaging general data sampling rate

    averaging_interval_pr      = 600.0, ! averaging interval profile data
    dt_averaging_input_pr      = 1.0,   ! averaging profile data sampling rate

!---removing 3D outputs for the fine domain for now and including cross section data

    do2d_at_begin      = .T.,


     data_output        =        'm_soil', 't_soil',
                                 'w_xy','w_xz','w_yz',
                                 'w_xy_av','w_xz_av','w_yz_av',
                                 'theta_xy','theta_xy_av',
                                 'theta_xz','theta_yz',
                                 'theta_xz_av','theta_yz_av',
                                 'q_xy','q_xy_av',
                                 'q_xz','q_yz',
                                 'q_xz_av','q_yz_av',
                                 's_xy','s_xy_av',
                                 's_xz','s_yz',
                                 's_xz_av','s_yz_av',
                                 'shf*_xy', 'qsws*_xy', 'ghf*_xy', 'rad_net*_xy', !include surface scalar flux
                                 'us*_xy','ol*_xy','t*_xy',
                                 'us*_xy_av','t*_xy_av',
                                 'rad_lw_in*_xy', 'rad_lw_out*_xy', 'rad_sw_in*_xy', 'rad_sw_out*_xy',
                                 'uu_xy_av','vv_xy_av', 'ww_xy_av',
                                 'uu_xz_av','vv_xz_av', 'ww_xz_av',
                                 'uu_yz_av','vv_yz_av', 'ww_yz_av',
                                 'uv_xy_av','uw_xy_av', 'vw_xy_av',
                                 'uv_xz_av','uw_xz_av', 'vw_xz_av',
                                 'uv_yz_av','uw_yz_av', 'vw_yz_av',
                                 'wtheta_xy_av','wq_xy_av','ws_xy_av',
                                 'wtheta_xz_av','wq_xz_av','ws_xz_av',
                                 'wtheta_yz_av','wq_yz_av','ws_yz_av', 

    data_output_pr             = 'wtheta', 'w"theta"', 'w*theta*',
                                 'wq','w"q"','w*q*',
                                 'ws','w"s"','w*s*',
                                 'w', 'w*2',
                                 'u', 'u*2',  'wu',  'w*u*',  'w"u"',
                                 'v', 'v*2',  'wv',  'w*v*',  'w"v"',
                                 '#theta','theta*2','#q','q*2','#s','s*2',
                                 'w*p*:dz',

    section_xy                 = 0,1,6,8,13,26,51, ! grid index for 2D XY cross sections, at 0,2,22,30,50,102,202 m
    section_xz                 = 693,1030,1551,        ! grid index for 2D XZ cross sections, through towers USPFq, USPFa, USPFg
    section_yz                 = 555,1012,1348,        ! grid index for 2D XZ cross sections, through towers USPFc, USPFa, USPFq



/ ! end of runtime parameter namelist

!-------------------------------------------------------------------------------
!-- VIRTUAL MEASUREMENTS PARAMETER NAMELIST
!   Documentation: https://palm.muk.uni-hannover.de/trac/wiki/doc/app/virtual_measurement_parameters
!-------------------------------------------------------------------------------
&virtual_measurement_parameters

   dt_virtual_measurement = 0.6,

/ ! end of virtual parameters namelist

